27
Properties=species:S:1:pos:R:3 pbc="F F F"
O        1.34452980      -1.43642587      -0.17712553
O       -1.34872906       1.44270215      -0.07452248
O       -1.44248951      -1.34118749      -0.16057395
O        1.43813642       1.35095869      -0.09362976
O        1.43328408       1.41870481      -2.35125044
O       -1.44594379      -1.27357448      -2.41820178
O       -1.35273385       1.51262899      -2.33207316
O        1.33992925      -1.36460459      -2.43462517
Cu       0.00000000       0.00000000       0.00000000
Cu      -0.00844469       0.07729162      -2.50946180
C        1.70183098      -1.78454828      -1.31884107
C       -1.71016555       1.86186528      -1.19053434
C       -1.82843470      -1.66687537      -1.29939801
C        1.82018790       1.74405991      -1.21254394
H       -2.46471923       2.66867655      -1.16461995
H       -2.63578659      -2.42098863      -1.32107006
H        2.62730217       2.49844860      -1.19160787
H        2.45635927      -2.59134296      -1.34609735
X       -0.58097794      -0.32062968       2.45948379
X        0.58097794       0.32062968       2.54051621
C        1.90715642      -0.34062288       2.71382167
H        2.58605519      -0.10349682       1.88258733
H        2.40808171      -0.00200211       3.63169503
H        1.80458455      -1.43171495       2.76669651
H       -1.52425101       0.20690092       2.33290195
H       -0.63425541      -1.40860026       2.51718336
H        0.58865102       1.41190075       2.47799482
